172

 Fe   -4.5000   -4.5000   -4.5000
 Fe   -3.0000   -3.0000   -4.5000
 Fe   -3.0000   -4.5000   -3.0000
 Fe   -4.5000   -3.0000   -3.0000
 Fe   -4.5000   -4.5000   -1.5000
 Fe   -3.0000   -3.0000   -1.5000
 Fe   -3.0000   -4.5000    0.0000
 Fe   -4.5000   -3.0000    0.0000
 Fe   -4.5000   -4.5000    1.5000
 Fe   -3.0000   -3.0000    1.5000
 Fe   -3.0000   -4.5000    3.0000
 Fe   -4.5000   -3.0000    3.0000
 Fe   -4.5000   -4.5000    4.5000
 Fe   -3.0000   -3.0000    4.5000
 Fe   -4.5000   -1.5000   -4.5000
 Fe   -3.0000    0.0000   -4.5000
 Fe   -3.0000   -1.5000   -3.0000
 Fe   -4.5000    0.0000   -3.0000
 Fe   -4.5000   -1.5000   -1.5000
 Fe   -3.0000    0.0000   -1.5000
 Fe   -3.0000   -1.5000    0.0000
 Fe   -4.5000    0.0000    0.0000
 Fe   -4.5000   -1.5000    1.5000
 Fe   -3.0000    0.0000    1.5000
 Fe   -3.0000   -1.5000    3.0000
 Fe   -4.5000    0.0000    3.0000
 Fe   -4.5000   -1.5000    4.5000
 Fe   -3.0000    0.0000    4.5000
 Fe   -4.5000    1.5000   -4.5000
 Fe   -3.0000    3.0000   -4.5000
 Fe   -3.0000    1.5000   -3.0000
 Fe   -4.5000    3.0000   -3.0000
 Fe   -4.5000    1.5000   -1.5000
 Fe   -3.0000    3.0000   -1.5000
 Fe   -3.0000    1.5000    0.0000
 Fe   -4.5000    3.0000    0.0000
 Fe   -4.5000    1.5000    1.5000
 Fe   -3.0000    3.0000    1.5000
 Fe   -3.0000    1.5000    3.0000
 Fe   -4.5000    3.0000    3.0000
 Fe   -4.5000    1.5000    4.5000
 Fe   -3.0000    3.0000    4.5000
 Fe   -4.5000    4.5000   -4.5000
 Fe   -3.0000    4.5000   -3.0000
 Fe   -4.5000    4.5000   -1.5000
 Fe   -3.0000    4.5000    0.0000
 Fe   -4.5000    4.5000    1.5000
 Fe   -3.0000    4.5000    3.0000
 Fe   -4.5000    4.5000    4.5000
 Fe   -1.5000   -4.5000   -4.5000
 Fe    0.0000   -3.0000   -4.5000
 Fe    0.0000   -4.5000   -3.0000
 Fe   -1.5000   -3.0000   -3.0000
 Fe   -1.5000   -4.5000   -1.5000
 Fe    0.0000   -3.0000   -1.5000
 Fe    0.0000   -4.5000    0.0000
 Fe   -1.5000   -3.0000    0.0000
 Fe   -1.5000   -4.5000    1.5000
 Fe    0.0000   -3.0000    1.5000
 Fe    0.0000   -4.5000    3.0000
 Fe   -1.5000   -3.0000    3.0000
 Fe   -1.5000   -4.5000    4.5000
 Fe    0.0000   -3.0000    4.5000
 Fe   -1.5000   -1.5000   -4.5000
 Fe    0.0000    0.0000   -4.5000
 Fe    0.0000   -1.5000   -3.0000
 Fe   -1.5000    0.0000   -3.0000
 Fe   -1.5000   -1.5000   -1.5000
 Fe    0.0000    0.0000   -1.5000
 Fe    0.0000   -1.5000    0.0000
 Fe   -1.5000    0.0000    0.0000
 Fe   -1.5000   -1.5000    1.5000
 Fe    0.0000    0.0000    1.5000
 Fe    0.0000   -1.5000    3.0000
 Fe   -1.5000    0.0000    3.0000
 Fe   -1.5000   -1.5000    4.5000
 Fe    0.0000    0.0000    4.5000
 Fe   -1.5000    1.5000   -4.5000
 Fe    0.0000    3.0000   -4.5000
 Fe    0.0000    1.5000   -3.0000
 Fe   -1.5000    3.0000   -3.0000
 Fe   -1.5000    1.5000   -1.5000
 Fe    0.0000    3.0000   -1.5000
 Fe    0.0000    1.5000    0.0000
 Fe   -1.5000    3.0000    0.0000
 Fe   -1.5000    1.5000    1.5000
 Fe    0.0000    3.0000    1.5000
 Fe    0.0000    1.5000    3.0000
 Fe   -1.5000    3.0000    3.0000
 Fe   -1.5000    1.5000    4.5000
 Fe    0.0000    3.0000    4.5000
 Fe   -1.5000    4.5000   -4.5000
 Fe    0.0000    4.5000   -3.0000
 Fe   -1.5000    4.5000   -1.5000
 Fe    0.0000    4.5000    0.0000
 Fe   -1.5000    4.5000    1.5000
 Fe    0.0000    4.5000    3.0000
 Fe   -1.5000    4.5000    4.5000
 Fe    1.5000   -4.5000   -4.5000
 Fe    3.0000   -3.0000   -4.5000
 Fe    3.0000   -4.5000   -3.0000
 Fe    1.5000   -3.0000   -3.0000
 Fe    1.5000   -4.5000   -1.5000
 Fe    3.0000   -3.0000   -1.5000
 Fe    3.0000   -4.5000    0.0000
 Fe    1.5000   -3.0000    0.0000
 Fe    1.5000   -4.5000    1.5000
 Fe    3.0000   -3.0000    1.5000
 Fe    3.0000   -4.5000    3.0000
 Fe    1.5000   -3.0000    3.0000
 Fe    1.5000   -4.5000    4.5000
 Fe    3.0000   -3.0000    4.5000
 Fe    1.5000   -1.5000   -4.5000
 Fe    3.0000    0.0000   -4.5000
 Fe    3.0000   -1.5000   -3.0000
 Fe    1.5000    0.0000   -3.0000
 Fe    1.5000   -1.5000   -1.5000
 Fe    3.0000    0.0000   -1.5000
 Fe    3.0000   -1.5000    0.0000
 Fe    1.5000    0.0000    0.0000
 Fe    1.5000   -1.5000    1.5000
 Fe    3.0000    0.0000    1.5000
 Fe    3.0000   -1.5000    3.0000
 Fe    1.5000    0.0000    3.0000
 Fe    1.5000   -1.5000    4.5000
 Fe    3.0000    0.0000    4.5000
 Fe    1.5000    1.5000   -4.5000
 Fe    3.0000    3.0000   -4.5000
 Fe    3.0000    1.5000   -3.0000
 Fe    1.5000    3.0000   -3.0000
 Fe    1.5000    1.5000   -1.5000
 Fe    3.0000    3.0000   -1.5000
 Fe    3.0000    1.5000    0.0000
 Fe    1.5000    3.0000    0.0000
 Fe    1.5000    1.5000    1.5000
 Fe    3.0000    3.0000    1.5000
 Fe    3.0000    1.5000    3.0000
 Fe    1.5000    3.0000    3.0000
 Fe    1.5000    1.5000    4.5000
 Fe    3.0000    3.0000    4.5000
 Fe    1.5000    4.5000   -4.5000
 Fe    3.0000    4.5000   -3.0000
 Fe    1.5000    4.5000   -1.5000
 Fe    3.0000    4.5000    0.0000
 Fe    1.5000    4.5000    1.5000
 Fe    3.0000    4.5000    3.0000
 Fe    1.5000    4.5000    4.5000
 Fe    4.5000   -4.5000   -4.5000
 Fe    4.5000   -3.0000   -3.0000
 Fe    4.5000   -4.5000   -1.5000
 Fe    4.5000   -3.0000    0.0000
 Fe    4.5000   -4.5000    1.5000
 Fe    4.5000   -3.0000    3.0000
 Fe    4.5000   -4.5000    4.5000
 Fe    4.5000   -1.5000   -4.5000
 Fe    4.5000    0.0000   -3.0000
 Fe    4.5000   -1.5000   -1.5000
 Fe    4.5000    0.0000    0.0000
 Fe    4.5000   -1.5000    1.5000
 Fe    4.5000    0.0000    3.0000
 Fe    4.5000   -1.5000    4.5000
 Fe    4.5000    1.5000   -4.5000
 Fe    4.5000    3.0000   -3.0000
 Fe    4.5000    1.5000   -1.5000
 Fe    4.5000    3.0000    0.0000
 Fe    4.5000    1.5000    1.5000
 Fe    4.5000    3.0000    3.0000
 Fe    4.5000    1.5000    4.5000
 Fe    4.5000    4.5000   -4.5000
 Fe    4.5000    4.5000   -1.5000
 Fe    4.5000    4.5000    1.5000
 Fe    4.5000    4.5000    4.5000
